       6
 i =        0        energy = 2.143
  C        -2.2784429253        0.3764716548        0.0613600732
  H        -1.1673363228        0.3433523315        0.0589783963
  O        -2.7413739998        1.2129700870       -0.9589752442
  H        -2.6620523911        0.7204890516        1.0463251752
  H        -2.6560170817       -0.6512416081       -0.1176831528
  H        -2.3804869890        2.1150657510       -0.7572121286
       6
 i =        1   energy = 2.675
  C        -2.2863781387        0.3834087333        0.0531928455
  H        -1.1942737791        0.3301522963        0.0224285724
  O        -2.7366005255        1.2110852658       -0.9560297206
  H        -2.6062423767        0.7046732375        1.0558981292
  H        -2.6462066446       -0.6636062224       -0.0697004711
  H        -2.3946286419        2.1003419571       -0.7288986971
       6
 i =        2   energy = 2.9035
  C        -2.2939466970        0.3894321047        0.0456932982
  H        -1.2146859241        0.3150121443       -0.0104391934
  O        -2.7315553621        1.2091993502       -0.9540227847
  H        -2.5510984567        0.6896104431        1.0693639362
  H        -2.6378315944       -0.6723766313       -0.0245673363
  H        -2.4098627840        2.0863041759       -0.7030934029
       6
 i =        3 energy = 2.46456
  C        -2.3008936197        0.3939232841        0.0392543068
  H        -1.2243494451        0.2977280428       -0.0397859496
  O        -2.7266064393        1.2071233190       -0.9533779722
  H        -2.4985026199        0.6778720792        1.0869113837
  H        -2.6325773750       -0.6763301568        0.0155467947
  H        -2.4247352328        2.0782245095       -0.6794227588
       6
 i =        4   energy = 10.245523
  C        -2.3067635268        0.3964099925        0.0343735686
  H        -1.2226118535        0.2781621580       -0.0657856296
  O        -2.7221296341        1.2047820771       -0.9545395664
  H        -2.4495559781        0.6711721277        1.1064943885
  H        -2.6321038891       -0.6749842436        0.0487864718
  H        -2.4387756036        2.0788619908       -0.6578759917